**
** ABAQUS Input Deck Generated by HyperMesh Version  : 12.0.0.85
** Generated using HyperMesh-Abaqus Template Version : 12.0
**
**   Template:  ABAQUS/STANDARD 3D
**
*NODE,NSET=nall
         1,  265.3681       ,  -743.52        ,  1328.652       
         2,  283.5191       ,  -750.5         ,  1100.362       
         3,  226.55         ,  -750.5         ,  1127.926       
         4,  283.5856       ,  -750.5         ,  1110.277       
         5,  235.8971       ,  -750.5         ,  1102.934       
         6,  255.1272       ,  -750.5         ,  1129.799       
         7,  245.723        ,  -750.5         ,  1138.728       
         8,  245.5206       ,  -750.5         ,  1111.336       
         9,  235.9966       ,  -750.5         ,  1128.643       
        10,  294.039        ,  -745.987       ,  1305.602       
        11,  274.054        ,  -750.5         ,  1110.674       
        12,  283.9818       ,  -750.5         ,  1190.453       
        13,  236.1292       ,  -750.5         ,  1111.066       
        14,  255.247        ,  -750.5         ,  1139.264       
        15,  228.1817       ,  -750.5         ,  1187.253       
        16,  283.9173       ,  -750.5         ,  1180.36        
        17,  245.4669       ,  -750.5         ,  1120.215       
        18,  236.7516       ,  -750.5         ,  1157.66        
        19,  284.1058       ,  -750.456       ,  1220.061       
        20,  517.3361       ,  -752.161       ,  1300.515       
** ... 3044 like lines cut
**HWCOLOR COMP          1    17
*ELEMENT,TYPE=S3,ELSET=XBN3_200D01_AA_1p0mm_DCO3
         1,      3009,      3006,      3010
         2,      3008,      3009,      3011
         3,      3015,      1884,      1860
         4,      3059,       873,      3057
         5,      2474,        68,       149
         6,      2380,      2378,      2382
         7,      2572,      2570,      1705
         8,       821,      2896,      2895
         9,         5,       421,        13
        10,      1328,       959,      1808
        11,        88,      2126,      1109
        12,       842,       222,       227
        13,       353,       858,       732
        14,       733,       334,       348
        15,      1475,      2827,      2788
        16,       483,       464,       493
        17,       481,       625,       439
        18,       437,       328,       436
        19,       819,       331,       714
        20,       329,       761,       820
** ... 99 like lines cut
**HWCOLOR COMP          1    17
*ELEMENT,TYPE=S4R,ELSET=XBN3_200D01_AA_1p0mm_DCO3
       120,      2632,      1213,      3056,      2990
       121,      2990,      2991,      3061,      3040
       122,      3061,      3051,      3054,       150
       123,      2991,      2990,      3056,      2989
       124,      2991,      3053,      3051,      3061
       125,      2991,      2989,      3049,      3053
       126,      3002,      2997,      2996,      3005
       127,      2813,      1505,      2996,      2997
       128,      1463,      3005,      2996,      1505
       129,      3005,      2995,      3001,      3002
       130,      1463,      1446,      2995,      3005
       131,      2995,      2999,      2992,      3001
       132,      1446,      1436,      2999,      2995
       133,      2999,      2998,      3000,      2992
       134,      1436,      1349,      2998,      2999
       135,      2998,      2994,      2993,      3000
       136,      1349,      1263,      2994,      2998
       137,      1263,      1237,      3003,      2994
       138,      2994,      3003,      3004,      2993
       139,      3006,      3012,      3013,      3010
** ... 2797 like lines cut
**HWNAME COMP          2 rb2
**HWCOLOR COMP          2     6
*COUPLING, REF NODE=3062, CONSTRAINT NAME=HM_coupkin_2937, SURFACE=HM_coupkin_surface_2937
*KINEMATIC
1,6
*SURFACE, NAME = HM_coupkin_surface_2937, TYPE = NODE
       108, 1
       877, 1
      1804, 1
      1838, 1
      1883, 1
      1993, 1
      2010, 1
      2110, 1
*COUPLING, REF NODE=3063, CONSTRAINT NAME=HM_coupkin_2938, SURFACE=HM_coupkin_surface_2938
*KINEMATIC
1,6
*SURFACE, NAME = HM_coupkin_surface_2938, TYPE = NODE
       734, 1
       735, 1
       736, 1
       740, 1
       860, 1
       861, 1
       862, 1
       863, 1
*COUPLING, REF NODE=3064, CONSTRAINT NAME=HM_coupkin_2939, SURFACE=HM_coupkin_surface_2939
*KINEMATIC
1,6
*SURFACE, NAME = HM_coupkin_surface_2939, TYPE = NODE
       104, 1
       120, 1
       865, 1
       866, 1
       874, 1
      1878, 1
**HMASSEM       1       3 BN3 00004 AA
**HMASSEM_ASSEM_ID             2
**HMASSEM       2      29 BN3 20011 AA
**HMASSEM_ASSEM_ID             3
**HMASSEM       3      40 BN3 20055 AA
**HMASSEM_ASSEM_ID             4
**HMASSEM       4      41 BN3 20002 AA
**HMASSEM_COMP_ID              1
**HMASSEM       5       3 BN3 00001 AA
**HMASSEM_ASSEM_ID             1
**HMASSEM       6      40 BIW_PPL
**HMASSEM_COMP_ID              1
**HMASSEM       7       4 biw
**HMASSEM_ASSEM_ID             5       6
**HM_comp_by_property "XBN3_200D01_AA_1p0mm_DCO3"    24
*SHELL SECTION, ELSET=XBN3_200D01_AA_1p0mm_DCO3, MATERIAL=XBN3_200D01_AA_1p0mm_DCO3
1.0       ,
**HM_comp_by_property "XBN3_200D01_AA_1p0mm_DCO3"    24
*SHELL SECTION, ELSET=rb2, MATERIAL=XBN3_200D01_AA_1p0mm_DCO3
1.0       ,
*MATERIAL, NAME=XBN3_200D01_AA_1p0mm_DCO3
*DENSITY
7.8000E-09,0.0       
*ELASTIC, TYPE = ISOTROPIC
206800.0  ,0.3       ,0.0       
*PLASTIC
143.374911,0.0       ,0.0       
150.765981,3.0304E-04,0.0       
158.679699,5.4668E-04,0.0       
169.522804,0.00117074,0.0       
177.957854,0.00241327,0.0       
183.859369,0.00369099,0.0       
195.153831,0.00739188,0.0       
205.779498,0.01149434,0.0       
232.433496,0.01778686,0.0       
240.713494,0.02194697,0.0       
248.248319,0.02607327,0.0       
255.327635,0.03013248,0.0       
261.836488,0.03416352,0.0       
268.007627,0.03813146,0.0       
277.393564,0.0446874 ,0.0       
287.765457,0.05255264,0.0       
294.05615 ,0.0577098 ,0.0       
299.930456,0.0629482 ,0.0       
305.436541,0.0681103 ,0.0       
310.769072,0.07337927,0.0       
** ... 32 like lines cut
**HMNAME LOADSTEP          1 Modal
*STEP
*FREQUENCY, EIGENSOLVER = LANCZOS
        20,,,,,
**HWNAME LOADCOL          1 spc
**HWCOLOR LOADCOL          1    11
*BOUNDARY
      3062,1,6,0.0
      3063,1,6,0.0
      3064,1,6,0.0
*OUTPUT, FIELD
*NODE OUTPUT
U,
*END STEP
*****
